outputs/ieee_118_barras/network/ieee_118_barras_base_118.pwf
TITU
VALIDACAO IEEE 30 - MODELAGEM VIA TAP CHANGER
DBAR
(Num)OETGb(    nome    )Gl( V)( A)( Pg)( Qg)( Qn)( Qm)(Bc  )( Pl)( Ql)
    0 L1 A1             954  11.0    0.0   -3.1   -5.0   15.0    0.0   51.0   27.0
    1 L  A2             971  11.5    0.0    0.0    0.0    0.0    0.0   20.0    9.0
    2 L  A3             967  11.9    0.0    0.0    0.0    0.0    0.0   39.0   10.0
    3 L1 A4             997  15.6    0.0  -15.0 -300.0  300.0    0.0   39.0   12.0
    4 L  A5            1001  16.0    0.0    0.0    0.0    0.0  -40.0    0.0    0.0
    5 L1 A6             990  13.3    0.0   15.9  -13.0   50.0    0.0   52.0   22.0
    6 L  A7             989  12.8    0.0    0.0    0.0    0.0    0.0   19.0    2.0
    7 L1 A8            1014  21.0    0.0   63.1 -300.0  300.0    0.0   28.0    0.0
    8 L  A9            1042  28.3    0.0    0.0    0.0    0.0    0.0    0.0    0.0
    9 L1 A10           1050  35.9  450.0  -51.0 -147.0  200.0    0.0    0.0    0.0
   10 L  A11            985  13.0    0.0    0.0    0.0    0.0    0.0   70.0   23.0
   11 L1 A12            990  12.5   85.0   91.3  -35.0  120.0    0.0   47.0   10.0
   12 L  A13            968  11.6    0.0    0.0    0.0    0.0    0.0   34.0   16.0
   13 L  A14            983  11.8    0.0    0.0    0.0    0.0    0.0   14.0    1.0
   14 L1 A15            969  11.5    0.0    7.2  -10.0   30.0    0.0   90.0   30.0
   15 L  A16            983  12.2    0.0    0.0    0.0    0.0    0.0   25.0   10.0
   16 L  A17            995  14.0    0.0    0.0    0.0    0.0    0.0   11.0    3.0
   17 L1 A18            973  11.8    0.0   28.4  -16.0   50.0    0.0   60.0   34.0
   18 L1 A19            962  11.3    0.0  -14.3   -8.0   24.0    0.0   45.0   25.0
   19 L  A20            956  12.2    0.0    0.0    0.0    0.0    0.0   18.0    3.0
   20 L  A21            957  13.8    0.0    0.0    0.0    0.0    0.0   14.0    8.0
   21 L  A22            969  16.3    0.0    0.0    0.0    0.0    0.0   10.0    5.0
   22 L  A23            999  21.2    0.0    0.0    0.0    0.0    0.0    7.0    3.0
   23 L1 A24            991  21.1    0.0  -14.9 -300.0  300.0    0.0   13.0    0.0
   24 L1 A25           1050  28.2  220.0   50.0  -47.0  140.0    0.0    0.0    0.0
   25 L1 A26           1014  30.0  314.0   10.1 -1000.0 1000.0    0.0    0.0    0.0
   26 L1 A27            968  15.6    0.0    4.0 -300.0  300.0    0.0   71.0   13.0
   27 L  A28            961  13.9    0.0    0.0    0.0    0.0    0.0   17.0    7.0
   28 L  A29            963  12.9    0.0    0.0    0.0    0.0    0.0   24.0    4.0
   29 L  A30            985  19.0    0.0    0.0    0.0    0.0    0.0    0.0    0.0
   30 L1 A31            967  13.0    7.0   32.6 -300.0  300.0    0.0   43.0   27.0
   31 L1 A32            963  15.1    0.0  -16.3  -14.0   42.0    0.0   59.0   23.0
   32 L  A33            970  10.9    0.0    0.0    0.0    0.0    0.0   23.0    9.0
   33 L1 A34            983  11.5    0.0  -20.8   -8.0   24.0   14.0   59.0   26.0
   34 L  A35            980  11.1    0.0    0.0    0.0    0.0    0.0   33.0    9.0
   35 L1 A36            979  11.1    0.0    7.7   -8.0   24.0    0.0   31.0   17.0
   36 L  A37            990  12.0    0.0    0.0    0.0    0.0  -25.0    0.0    0.0
   37 L  A38            961  17.1    0.0    0.0    0.0    0.0    0.0    0.0    0.0
   38 L  A39            969   8.6    0.0    0.0    0.0    0.0    0.0   27.0   11.0
   39 L1 A40            969   7.5    0.0   28.5 -300.0  300.0    0.0   66.0   23.0
   40 L  A41            966   7.1    0.0    0.0    0.0    0.0    0.0   37.0   10.0
   41 L1 A42            985   8.7    0.0   41.0 -300.0  300.0    0.0   96.0   23.0
   42 L  A43            977  11.5    0.0    0.0    0.0    0.0    0.0   18.0    7.0
   43 L  A44            984  13.9    0.0    0.0    0.0    0.0   10.0   16.0    8.0
   44 L  A45            986  15.8    0.0    0.0    0.0    0.0   10.0   53.0   22.0
   45 L1 A46           1005  18.6   19.0   -5.0 -100.0  100.0   10.0   28.0   10.0
   46 L  A47           1017  20.8    0.0    0.0    0.0    0.0    0.0   34.0    0.0
   47 L  A48           1020  20.0    0.0    0.0    0.0    0.0   15.0   20.0   11.0
   48 L1 A49           1024  21.0  204.0  115.8  -85.0  210.0    0.0   87.0   30.0
   49 L  A50           1001  19.0    0.0    0.0    0.0    0.0    0.0   17.0    4.0
   50 L  A51            966  16.4    0.0    0.0    0.0    0.0    0.0   17.0    8.0
   51 L  A52            956  15.4    0.0    0.0    0.0    0.0    0.0   18.0    5.0
   52 L  A53            945  14.4    0.0    0.0    0.0    0.0    0.0   23.0   11.0
   53 L1 A54            954  15.3   48.0    3.9 -300.0  300.0    0.0  113.0   32.0
   54 L1 A55            952  15.1    0.0    4.7   -8.0   23.0    0.0   63.0   22.0
   55 L1 A56            954  15.2    0.0   -2.3   -8.0   15.0    0.0   84.0   18.0
   56 L  A57            970  16.4    0.0    0.0    0.0    0.0    0.0   12.0    3.0
   57 L  A58            959  15.6    0.0    0.0    0.0    0.0    0.0   12.0    3.0
   58 L1 A59            985  19.4  155.0   76.8  -60.0  180.0    0.0  277.0  113.0
   59 L  A60            993  23.2    0.0    0.0    0.0    0.0    0.0   78.0    3.0
   60 L1 A61            994  24.1  160.0  -40.4 -100.0  300.0    0.0    0.0    0.0
   61 L1 A62            998  23.5    0.0    1.3  -20.0   20.0    0.0   77.0   14.0
   62 L  A63            968  22.8    0.0    0.0    0.0    0.0    0.0    0.0    0.0
   63 L  A64            983  24.6    0.0    0.0    0.0    0.0    0.0    0.0    0.0
   64 L1 A65           1004  27.7  391.0   81.4  -67.0  200.0    0.0    0.0    0.0
   65 L1 A66           1050  27.6  392.0   -2.0  -67.0  200.0    0.0   39.0   18.0
   66 L  A67           1019  24.9    0.0    0.0    0.0    0.0    0.0   28.0    7.0
   67 L  A68           1003  27.6    0.0    0.0    0.0    0.0    0.0    0.0    0.0
   68 L2 A69           1035  30.0  513.9  -82.5 -300.0  300.0    0.0    0.0    0.0
   69 L1 A70            983  22.6    0.0    9.7  -10.0   32.0    0.0   66.0   20.0
   70 L  A71            986  22.2    0.0    0.0    0.0    0.0    0.0    0.0    0.0
   71 L1 A72            980  21.1    0.0  -11.1 -100.0  100.0    0.0   12.0    0.0
   72 L1 A73            991  22.0    0.0    9.7 -100.0  100.0    0.0    6.0    0.0
   73 L1 A74            957  21.7    0.0   -5.6   -6.0    9.0   12.0   68.0   27.0
   74 L  A75            967  22.9    0.0    0.0    0.0    0.0    0.0   47.0   11.0
   75 L1 A76            942  21.8    0.0    5.3   -8.0   23.0    0.0   68.0   36.0
   76 L1 A77           1006  26.7    0.0   12.2  -20.0   70.0    0.0   61.0   28.0
   77 L  A78           1003  26.4    0.0    0.0    0.0    0.0    0.0   71.0   26.0
   78 L  A79           1009  26.7    0.0    0.0    0.0    0.0   20.0   39.0   32.0
   79 L1 A80           1039  29.0  477.0  105.4 -165.0  280.0    0.0  130.0   26.0
   80 L  A81            996  28.1    0.0    0.0    0.0    0.0    0.0    0.0    0.0
   81 L  A82            988  27.3    0.0    0.0    0.0    0.0   20.0   54.0   27.0
   82 L  A83            984  28.5    0.0    0.0    0.0    0.0   10.0   20.0   10.0
   83 L  A84            979  31.0    0.0    0.0    0.0    0.0    0.0   11.0    7.0
   84 L1 A85            985  32.6    0.0   -5.6   -8.0   23.0    0.0   24.0   15.0
   85 L  A86            986  31.2    0.0    0.0    0.0    0.0    0.0   21.0   10.0
   86 L1 A87           1014  31.4    4.0   11.0 -100.0 1000.0    0.0    0.0    0.0
   87 L  A88            987  35.7    0.0    0.0    0.0    0.0    0.0   48.0   10.0
   88 L1 A89           1005  39.7  607.0   -5.9 -210.0  300.0    0.0    0.0    0.0
   89 L1 A90            985  33.3    0.0   59.3 -300.0  300.0    0.0  163.0   42.0
   90 L1 A91            979  33.3    0.0  -13.1 -100.0  100.0    0.0   10.0    0.0
   91 L1 A92            990  33.9    0.0  -14.0   -3.0    9.0    0.0   65.0   10.0
   92 L  A93            985  30.8    0.0    0.0    0.0    0.0    0.0   12.0    7.0
   93 L  A94            989  28.7    0.0    0.0    0.0    0.0    0.0   30.0   16.0
   94 L  A95            980  27.7    0.0    0.0    0.0    0.0    0.0   42.0   31.0
   95 L  A96            992  27.5    0.0    0.0    0.0    0.0    0.0   38.0   15.0
   96 L  A97           1011  27.9    0.0    0.0    0.0    0.0    0.0   15.0    9.0
   97 L  A98           1023  27.4    0.0    0.0    0.0    0.0    0.0   34.0    8.0
   98 L1 A99           1010  27.1    0.0  -17.5 -100.0  100.0    0.0   42.0    0.0
   99 L1 A100          1017  28.1  252.0   95.6  -50.0  155.0    0.0   37.0   18.0
  100 L  A101           991  29.6    0.0    0.0    0.0    0.0    0.0   22.0   15.0
  101 L  A102           989  32.4    0.0    0.0    0.0    0.0    0.0    5.0    3.0
  102 L1 A103          1010  24.3   40.0   75.4  -15.0   40.0    0.0   23.0   16.0
  103 L1 A104           971  21.7    0.0    2.4   -8.0   23.0    0.0   38.0   25.0
  104 L1 A105           964  20.6    0.0  -18.3   -8.0   23.0   20.0   31.0   26.0
  105 L  A106           961  20.4    0.0    0.0    0.0    0.0    0.0   43.0   16.0
  106 L1 A107           952  17.6    0.0    6.6 -200.0  200.0    6.0   50.0   12.0
  107 L  A108           966  19.4    0.0    0.0    0.0    0.0    0.0    2.0    1.0
  108 L  A109           967  19.0    0.0    0.0    0.0    0.0    0.0    8.0    3.0
  109 L1 A110           972  18.1    0.0    0.3   -8.0   23.0    6.0   39.0   30.0
  110 L1 A111           980  19.8   36.0   -1.8 -100.0 1000.0    0.0    0.0    0.0
  111 L1 A112           975  15.0    0.0   41.5 -100.0 1000.0    0.0   68.0   13.0
  112 L1 A113           992  14.0    0.0    6.8 -100.0  200.0    0.0    6.0    0.0
  113 L  A114           960  14.7    0.0    0.0    0.0    0.0    0.0    8.0    3.0
  114 L  A115           960  14.7    0.0    0.0    0.0    0.0    0.0   22.0    7.0
  115 L1 A116          1004  27.2    0.0   51.1 -1000.0 1000.0    0.0  184.0    0.0
  116 L  A117           973  10.9    0.0    0.0    0.0    0.0    0.0   20.0    8.0
  117 L  A118           949  21.9    0.0    0.0    0.0    0.0    0.0   33.0   15.0
DLIN
(De )d O d(Pa )NcEP ( R% )( X% )(Mvar)(Tap)(Tmn)(Tmx)(Phs)(Bc  )(Cn)(Ce)Ns
    0     1   1        3.03   9.99   2.54
    0     2   1        1.29   4.24   1.08
    3     4   1        0.18   0.80   0.21
    2     4   1        2.41  10.80   2.84
    4     5   1        1.19   5.40   1.43
    5     6   1        0.46   2.08   0.55
    7     8   1        0.24   3.05 116.20
    8     9   1        0.26   3.22 123.00
    3    10   1        2.09   6.88   1.75
    4    10   1        2.03   6.82   1.74
   10    11   1        0.60   1.96   0.50
    1    11   1        1.87   6.16   1.57
    2    11   1        4.84  16.00   4.06
    6    11   1        0.86   3.40   0.87
   10    12   1        2.23   7.31   1.88
   11    13   1        2.15   7.07   1.82
   12    14   1        7.44  24.44   6.27
   13    14   1        5.95  19.50   5.02
   11    15   1        2.12   8.34   2.14
   14    16   1        1.32   4.37   4.44
   15    16   1        4.54  18.01   4.66
   16    17   1        1.23   5.05   1.30
   17    18   1        1.12   4.93   1.14
   18    19   1        2.52  11.70   2.98
   14    18   1        1.20   3.94   1.01
   19    20   1        1.83   8.49   2.16
   20    21   1        2.09   9.70   2.46
   21    22   1        3.42  15.90   4.04
   22    23   1        1.35   4.92   4.98
   22    24   1        1.56   8.00   8.64
   24    26   1        3.18  16.30  17.64
   26    27   1        1.91   8.55   2.16
   27    28   1        2.37   9.43   2.38
    7    29   1        0.43   5.04  51.40
   25    29   1        0.80   8.60  90.80
   16    30   1        4.74  15.63   3.99
   28    30   1        1.08   3.31   0.83
   22    31   1        3.17  11.53  11.73
   30    31   1        2.98   9.85   2.51
   26    31   1        2.29   7.55   1.93
   14    32   1        3.80  12.44   3.19
   18    33   1        7.52  24.70   6.32
   34    35   1        0.22   1.02   0.27
   34    36   1        1.10   4.97   1.32
   32    36   1        4.15  14.20   3.66
   33    35   1        0.87   2.68   0.57
   33    36   1        0.26   0.94   0.98
   36    38   1        3.21  10.60   2.70
   36    39   1        5.93  16.80   4.20
   29    37   1        0.46   5.40  42.20
   38    39   1        1.84   6.05   1.55
   39    40   1        1.45   4.87   1.22
   39    41   1        5.55  18.30   4.66
   40    41   1        4.10  13.50   3.44
   42    43   1        6.08  24.54   6.07
   33    42   1        4.13  16.81   4.23
   43    44   1        2.24   9.01   2.24
   44    45   1        4.00  13.56   3.32
   45    46   1        3.80  12.70   3.16
   45    47   1        6.01  18.90   4.72
   46    48   1        1.91   6.25   1.60
   41    48   1        7.15  32.30   8.60
   41    48   1        7.15  32.30   8.60
   44    48   1        6.84  18.60   4.44
   47    48   1        1.79   5.05   1.26
   48    49   1        2.67   7.52   1.87
   48    50   1        4.86  13.70   3.42
   50    51   1        2.03   5.88   1.40
   51    52   1        4.05  16.35   4.06
   52    53   1        2.63  12.20   3.10
   48    53   1        7.30  28.90   7.38
   48    53   1        8.69  29.10   7.30
   53    54   1        1.69   7.07   2.02
   53    55   1        0.28   0.95   0.73
   54    55   1        0.49   1.51   0.37
   55    56   1        3.43   9.66   2.42
   49    56   1        4.74  13.40   3.32
   55    57   1        3.43   9.66   2.42
   50    57   1        2.55   7.19   1.79
   53    58   1        5.03  22.93   5.98
   55    58   1        8.25  25.10   5.69
   55    58   1        8.03  23.90   5.36
   54    58   1        4.74  21.58   5.65
   58    59   1        3.17  14.50   3.76
   58    60   1        3.28  15.00   3.88
   59    60   1        0.26   1.35   1.46
   59    61   1        1.23   5.61   1.47
   60    61   1        0.82   3.76   0.98
   62    63   1        0.17   2.00  21.60
   37    64   1        0.90   9.86 104.60
   63    64   1        0.27   3.02  38.00
   48    65   1        1.80   9.19   2.48
   48    65   1        1.80   9.19   2.48
   61    65   1        4.82  21.80   5.78
   61    66   1        2.58  11.70   3.10
   65    66   1        2.24  10.15   2.68
   46    68   1        8.44  27.78   7.09
   48    68   1        9.85  32.40   8.28
   68    69   1        3.00  12.70  12.20
   23    69   1        0.22  41.15  10.20
   69    70   1        0.88   3.55   0.88
   23    71   1        4.88  19.60   4.88
   70    71   1        4.46  18.00   4.44
   70    72   1        0.87   4.54   1.18
   69    73   1        4.01  13.23   3.37
   69    74   1        4.28  14.10   3.60
   68    74   1        4.05  12.20  12.40
   73    74   1        1.23   4.06   1.03
   75    76   1        4.44  14.80   3.68
   68    76   1        3.09  10.10  10.38
   74    76   1        6.01  19.99   4.98
   76    77   1        0.38   1.24   1.26
   77    78   1        0.55   2.44   0.65
   76    79   1        1.70   4.85   4.72
   76    79   1        2.94  10.50   2.28
   78    79   1        1.56   7.04   1.87
   76    81   1        2.98   8.53   8.17
   81    82   1        1.12   3.67   3.80
   82    83   1        6.25  13.20   2.58
   82    84   1        4.30  14.80   3.48
   83    84   1        3.02   6.41   1.23
   84    85   1        3.50  12.30   2.76
   84    87   1        2.00  10.20   2.76
   84    88   1        2.39  17.30   4.70
   87    88   1        1.39   7.12   1.93
   88    89   1        5.18  18.80   5.28
   88    89   1        2.38   9.97  10.60
   89    90   1        2.54   8.36   2.14
   88    91   1        0.99   5.05   5.48
   88    91   1        3.93  15.81   4.14
   90    91   1        3.87  12.72   3.27
   91    92   1        2.58   8.48   2.18
   91    93   1        4.81  15.80   4.06
   92    93   1        2.23   7.32   1.88
   93    94   1        1.32   4.34   1.11
   79    95   1        3.56  18.20   4.94
   81    95   1        1.62   5.30   5.44
   93    95   1        2.69   8.69   2.30
   79    96   1        1.83   9.34   2.54
   79    97   1        2.38  10.80   2.86
   79    98   1        4.54  20.60   5.46
   91    99   1        6.48  29.50   4.72
   93    99   1        1.78   5.80   6.04
   94    95   1        1.71   5.47   1.47
   95    96   1        1.73   8.85   2.40
   97    99   1        3.97  17.90   4.76
   98    99   1        1.80   8.13   2.16
   99   100   1        2.77  12.62   3.28
   91   101   1        1.23   5.59   1.46
  100   101   1        2.46  11.20   2.94
   99   102   1        1.60   5.25   5.36
   99   103   1        4.51  20.40   5.41
  102   103   1        4.66  15.84   4.07
  102   104   1        5.35  16.25   4.08
   99   105   1        6.05  22.90   6.20
  103   104   1        0.99   3.78   0.99
  104   105   1        1.40   5.47   1.43
  104   106   1        5.30  18.30   4.72
  104   107   1        2.61   7.03   1.84
  105   106   1        5.30  18.30   4.72
  107   108   1        1.05   2.88   0.76
  102   109   1        3.91  18.13   4.61
  108   109   1        2.78   7.62   2.02
  109   110   1        2.20   7.55   2.00
  109   111   1        2.47   6.40   6.20
   16   112   1        0.91   3.01   0.77
   31   112   1        6.15  20.30   5.18
   31   113   1        1.35   6.12   1.63
   26   114   1        1.64   7.41   1.97
  113   114   1        0.23   1.04   0.28
   11   116   1        3.29  14.00   3.58
   74   117   1        1.45   4.81   1.20
   75   117   1        1.64   5.44   1.36
    7     4   1        0.00 264.33   0.00  0.985
   25    24   1        0.00 378.18   0.00  0.960
   29    16   1        0.00 384.12   0.00  0.960
   37    36   1        0.00 371.25   0.00  0.935
   62    58   1        0.00 382.14   0.00  0.960
   63    60   1        0.00 265.32   0.00  0.985
   64    65   1        0.00 366.30   0.00  0.935
   64    67   1       13.66 158.40   0.00  1.000
   67    68   1        0.00 366.30   0.00  0.935
   80    67   1       17.32 199.98   0.00  1.000
   80    79   1        0.00 366.30   0.00  0.935
   86    85   1      279.97 2053.26   0.00  1.000
  115    67   1        3.37  40.09   0.00  1.000
99999
FIM
